110
DC = 22.388013321772757
Mg       0.00000000       1.90000000       1.90000000 
Mg       1.90000000       0.00000000       1.90000000 
Mg       1.90000000       1.90000000       0.00000000 
O       1.90000000       1.90000000       1.90000000 
Mg       0.00000000       0.00000000       3.80000000 
Mg       0.00000000       1.90000000       5.70000000 
Mg       1.90000000       0.00000000       5.70000000 
Mg       1.90000000       1.90000000       3.80000000 
O       1.90000000       1.90000000       5.70000000 
O       1.90000000       0.00000000       3.80000000 
O       0.00000000       1.90000000       3.80000000 
O       0.00000000       0.00000000       5.70000000 
Mg       1.90000000       1.90000000       7.60000000 
O       1.90000000       1.90000000       9.50000000 
O       1.90000000       0.00000000       7.60000000 
O       0.00000000       1.90000000       7.60000000 
Mg       0.00000000       5.70000000       1.90000000 
Mg       1.90000000       3.80000000       1.90000000 
Mg       1.90000000       5.70000000       0.00000000 
O       1.90000000       5.70000000       1.90000000 
O       1.90000000       3.80000000       0.00000000 
O       0.00000000       3.80000000       1.90000000 
Mg       0.00000000       3.80000000       3.80000000 
Mg       0.00000000       5.70000000       5.70000000 
Mg       1.90000000       3.80000000       5.70000000 
Mg       1.90000000       5.70000000       3.80000000 
O       1.90000000       5.70000000       5.70000000 
O       1.90000000       3.80000000       3.80000000 
O       0.00000000       5.70000000       3.80000000 
O       0.00000000       3.80000000       5.70000000 
Mg       0.00000000       3.80000000       7.60000000 
Mg       1.90000000       3.80000000       9.50000000 
Mg       1.90000000       5.70000000       7.60000000 
O       1.90000000       3.80000000       7.60000000 
O       0.00000000       5.70000000       7.60000000 
O       0.00000000       3.80000000       9.50000000 
Mg       1.90000000       7.60000000       1.90000000 
Mg       0.00000000       7.60000000       3.80000000 
Mg       1.90000000       7.60000000       5.70000000 
O       1.90000000       7.60000000       3.80000000 
O       0.00000000       7.60000000       5.70000000 
O       1.90000000       7.60000000       7.60000000 
Mg       3.80000000       1.90000000       1.90000000 
Mg       5.70000000       0.00000000       1.90000000 
Mg       5.70000000       1.90000000       0.00000000 
O       5.70000000       1.90000000       1.90000000 
O       3.80000000       1.90000000       0.00000000 
O       3.80000000       0.00000000       1.90000000 
Mg       3.80000000       0.00000000       3.80000000 
Mg       3.80000000       1.90000000       5.70000000 
Mg       5.70000000       0.00000000       5.70000000 
Mg       5.70000000       1.90000000       3.80000000 
O       5.70000000       1.90000000       5.70000000 
O       5.70000000       0.00000000       3.80000000 
O       3.80000000       1.90000000       3.80000000 
O       3.80000000       0.00000000       5.70000000 
Mg       3.80000000       0.00000000       7.60000000 
Mg       3.80000000       1.90000000       9.50000000 
Mg       5.70000000       1.90000000       7.60000000 
O       5.70000000       0.00000000       7.60000000 
O       3.80000000       1.90000000       7.60000000 
O       3.80000000       0.00000000       9.50000000 
Mg       3.80000000       3.80000000       0.00000000 
Mg       3.80000000       5.70000000       1.90000000 
Mg       5.70000000       3.80000000       1.90000000 
Mg       5.70000000       5.70000000       0.00000000 
O       5.70000000       5.70000000       1.90000000 
O       5.70000000       3.80000000       0.00000000 
O       3.80000000       5.70000000       0.00000000 
O       3.80000000       3.80000000       1.90000000 
Mg       3.80000000       3.80000000       3.80000000 
Mg       3.80000000       5.70000000       5.70000000 
Mg       5.70000000       3.80000000       5.70000000 
Mg       5.70000000       5.70000000       3.80000000 
O       5.70000000       5.70000000       5.70000000 
O       5.70000000       3.80000000       3.80000000 
O       3.80000000       5.70000000       3.80000000 
O       3.80000000       3.80000000       5.70000000 
Mg       3.80000000       3.80000000       7.60000000 
Mg       3.80000000       5.70000000       9.50000000 
Mg       5.70000000       3.80000000       9.50000000 
Mg       5.70000000       5.70000000       7.60000000 
O       5.70000000       5.70000000       9.50000000 
O       5.70000000       3.80000000       7.60000000 
O       3.80000000       5.70000000       7.60000000 
O       3.80000000       3.80000000       9.50000000 
Mg       5.70000000       7.60000000       1.90000000 
O       3.80000000       7.60000000       1.90000000 
Mg       3.80000000       7.60000000       3.80000000 
Mg       5.70000000       7.60000000       5.70000000 
O       5.70000000       7.60000000       3.80000000 
O       3.80000000       7.60000000       5.70000000 
Mg       3.80000000       7.60000000       7.60000000 
O       5.70000000       7.60000000       7.60000000 
O       3.80000000       7.60000000       9.50000000 
Mg       7.60000000       1.90000000       1.90000000 
Mg       7.60000000       0.00000000       3.80000000 
Mg       7.60000000       1.90000000       5.70000000 
O       7.60000000       1.90000000       3.80000000 
O       7.60000000       0.00000000       5.70000000 
Mg       7.60000000       5.70000000       1.90000000 
O       7.60000000       3.80000000       1.90000000 
Mg       7.60000000       3.80000000       3.80000000 
Mg       7.60000000       5.70000000       5.70000000 
O       7.60000000       5.70000000       3.80000000 
O       7.60000000       3.80000000       5.70000000 
Mg       7.60000000       3.80000000       7.60000000 
O       7.60000000       5.70000000       7.60000000 
Mg       7.60000000       7.60000000       3.80000000 
O       7.60000000       7.60000000       5.70000000 
