99
DC = 4.437773588756099
O       0.00000000       4.49180000       9.31980000 
O       0.50308160       6.73770000       4.65990000 
O       0.50308160       6.73770000       7.76650000 
Ru       3.62039080       3.62039080       1.55330000 
O       4.49180000       4.49180000       0.00000000 
O       2.24590000       4.99488160       1.55330000 
O       4.99488160       2.24590000       1.55330000 
Ru       3.62039080       3.62039080       4.65990000 
O       2.74898160       2.74898160       3.10660000 
O       4.49180000       4.49180000       3.10660000 
O       2.24590000       4.99488160       4.65990000 
O       4.99488160       2.24590000       4.65990000 
Ru       3.62039080       3.62039080       7.76650000 
O       2.74898160       2.74898160       6.21320000 
O       4.49180000       4.49180000       6.21320000 
O       2.24590000       4.99488160       7.76650000 
O       4.99488160       2.24590000       7.76650000 
Ru       3.62039080       3.62039080      10.87310000 
O       2.74898160       2.74898160       9.31980000 
O       4.49180000       4.49180000       9.31980000 
O       2.24590000       4.99488160      10.87310000 
O       4.99488160       2.24590000      10.87310000 
O       4.49180000       4.49180000      12.42640000 
Ru       3.62039080       8.11219080       1.55330000 
O       2.24590000       9.48668160       1.55330000 
O       4.99488160       6.73770000       1.55330000 
Ru       1.37449080       5.86629080       3.10660000 
Ru       3.62039080       8.11219080       4.65990000 
O       2.74898160       7.24078160       3.10660000 
O       4.49180000       8.98360000       3.10660000 
O       4.99488160       6.73770000       4.65990000 
Ru       1.37449080       5.86629080       6.21320000 
Ru       3.62039080       8.11219080       7.76650000 
O       2.74898160       7.24078160       6.21320000 
O       4.49180000       8.98360000       6.21320000 
O       4.99488160       6.73770000       7.76650000 
Ru       1.37449080       5.86629080       9.31980000 
Ru       3.62039080       8.11219080      10.87310000 
O       2.74898160       7.24078160       9.31980000 
O       4.49180000       8.98360000       9.31980000 
O       2.24590000       9.48668160      10.87310000 
O       4.99488160       6.73770000      10.87310000 
O       4.99488160      11.22950000       4.65990000 
O       4.99488160      11.22950000       7.76650000 
O       6.73770000       0.50308160       4.65990000 
O       6.73770000       0.50308160       7.76650000 
Ru       8.11219080       3.62039080       1.55330000 
O       6.73770000       4.99488160       1.55330000 
O       9.48668160       2.24590000       1.55330000 
Ru       5.86629080       1.37449080       3.10660000 
Ru       8.11219080       3.62039080       4.65990000 
O       7.24078160       2.74898160       3.10660000 
O       8.98360000       4.49180000       3.10660000 
O       6.73770000       4.99488160       4.65990000 
Ru       5.86629080       1.37449080       6.21320000 
Ru       8.11219080       3.62039080       7.76650000 
O       7.24078160       2.74898160       6.21320000 
O       8.98360000       4.49180000       6.21320000 
O       6.73770000       4.99488160       7.76650000 
Ru       5.86629080       1.37449080       9.31980000 
Ru       8.11219080       3.62039080      10.87310000 
O       7.24078160       2.74898160       9.31980000 
O       8.98360000       4.49180000       9.31980000 
O       6.73770000       4.99488160      10.87310000 
O       9.48668160       2.24590000      10.87310000 
Ru       5.86629080       5.86629080       0.00000000 
Ru       8.11219080       8.11219080       1.55330000 
O       7.24078160       7.24078160       0.00000000 
O       6.73770000       9.48668160       1.55330000 
O       9.48668160       6.73770000       1.55330000 
Ru       5.86629080       5.86629080       3.10660000 
Ru       8.11219080       8.11219080       4.65990000 
O       7.24078160       7.24078160       3.10660000 
O       8.98360000       8.98360000       3.10660000 
O       6.73770000       9.48668160       4.65990000 
O       9.48668160       6.73770000       4.65990000 
Ru       5.86629080       5.86629080       6.21320000 
Ru       8.11219080       8.11219080       7.76650000 
O       7.24078160       7.24078160       6.21320000 
O       8.98360000       8.98360000       6.21320000 
O       6.73770000       9.48668160       7.76650000 
O       9.48668160       6.73770000       7.76650000 
Ru       5.86629080       5.86629080       9.31980000 
Ru       8.11219080       8.11219080      10.87310000 
O       7.24078160       7.24078160       9.31980000 
O       8.98360000       8.98360000       9.31980000 
O       6.73770000       9.48668160      10.87310000 
O       9.48668160       6.73770000      10.87310000 
Ru       5.86629080       5.86629080      12.42640000 
O       7.24078160       7.24078160      12.42640000 
Ru       5.86629080      10.35809080       3.10660000 
Ru       5.86629080      10.35809080       6.21320000 
Ru       5.86629080      10.35809080       9.31980000 
O      11.22950000       4.99488160       4.65990000 
O      11.22950000       4.99488160       7.76650000 
Ru      10.35809080       5.86629080       3.10660000 
Ru      10.35809080       5.86629080       6.21320000 
Ru      10.35809080       5.86629080       9.31980000 
O      11.73258160       7.24078160       9.31980000 
